 Abaqus/Standard 6.14-1                  DATE 18-Sep-2015 TIME 15:54:11
 SUMMARY OF JOB INFORMATION:
 STEP  INC ATT SEVERE EQUIL TOTAL  TOTAL      STEP       INC OF       DOF    IF
               DISCON ITERS ITERS  TIME/    TIME/LPF    TIME/LPF    MONITOR RIKS
               ITERS               FREQ
   1     1   1U    0     5     5  0.00       0.00       1.000     
   1     1   2     0     6     6  0.250      0.250      0.2500    
   1     2   1     0     6     6  0.500      0.500      0.2500    
   1     3   1U    0     6     6  0.500      0.500      0.2500    
   1     3   2     0     4     4  0.562      0.562      0.06250   
   1     4   1     0     4     4  0.625      0.625      0.06250   
   1     5   1     0     4     4  0.719      0.719      0.09375   
   1     6   1U    0     5     5  0.719      0.719      0.1406    
   1     6   2     0     4     4  0.754      0.754      0.03516   
   1     7   1     0     4     4  0.807      0.807      0.05273   
   1     8   1     0     6     6  0.886      0.886      0.07910   
   1     9   1U    0     4     4  0.886      0.886      0.07910   
   1     9   2     0     4     4  0.906      0.906      0.01978   
   1    10   1     0     3     3  0.925      0.925      0.01978   
   1    11   1     0     4     4  0.955      0.955      0.02966   
   1    12   1     0     4     4  0.999      0.999      0.04449   
   1    13   1     0     2     2  1.00       1.00       0.0005493 
                          
 THE ANALYSIS HAS COMPLETED SUCCESSFULLY
